<?xml version="1.0" encoding="UTF-8"?>

<!-- generated on 2022-11-06 13:26:35 by Eclipse SUMO netedit Version 1.9.2
<configuration xmlns:xsi="http://www.w3.org/2001/XMLSchema-instance" xsi:noNamespaceSchemaLocation="http://sumo.dlr.de/xsd/netconvertConfiguration.xsd">

    <input>
        <sumo-net-file value="E:\Program\python\ray\RL_signal_test2\sumo_files\moco.net.xml"/>
    </input>

    <output>
        <output-file value="E:\Program\python\ray\RL_signal_test2\sumo_files\moco.net.xml"/>
    </output>

    <processing>
        <geometry.min-radius.fix.railways value="false"/>
        <geometry.max-grade.fix value="false"/>
        <offset.disable-normalization value="true"/>
        <lefthand value="false"/>
    </processing>

    <junctions>
        <no-turnarounds value="true"/>
        <junctions.corner-detail value="0"/>
        <junctions.limit-turn-speed value="-1"/>
        <rectangular-lane-cut value="false"/>
    </junctions>

    <pedestrian>
        <walkingareas value="false"/>
    </pedestrian>

    <report>
        <aggregate-warnings value="5"/>
    </report>

</configuration>
-->

<net version="1.9" xmlns:xsi="http://www.w3.org/2001/XMLSchema-instance" xsi:noNamespaceSchemaLocation="http://sumo.dlr.de/xsd/net_file.xsd">

    <location netOffset="-313947.10,-4324493.22" convBoundary="0.00,-45.13,3209.18,788.18" origBoundary="-77.150000,39.050000,-77.110000,39.060000" projParameter="+proj=utm +zone=18 +ellps=WGS84 +datum=WGS84 +units=m +no_defs"/>

    <edge id=":-50846720#1.35_0" function="internal">
        <lane id=":-50846720#1.35_0_0" index="0" disallow="tram rail_urban rail rail_electric rail_fast ship" speed="22.22" length="8.27" shape="2641.42,292.22 2643.91,291.84 2645.50,290.82 2647.09,289.80 2649.57,289.42"/>
        <lane id=":-50846720#1.35_0_1" index="1" disallow="tram rail_urban rail rail_electric rail_fast ship" speed="22.22" length="8.27" shape="2641.42,292.22 2649.41,292.62"/>
        <lane id=":-50846720#1.35_0_2" index="2" disallow="tram rail_urban rail rail_electric rail_fast ship" speed="22.22" length="8.27" shape="2641.26,295.41 2649.25,295.81"/>
    </edge>
    <edge id=":-50846720#6.20_0" function="internal">
        <lane id=":-50846720#6.20_0_0" index="0" disallow="tram rail_urban rail rail_electric rail_fast ship" speed="22.22" length="8.93" shape="1864.00,299.64 1866.36,298.81 1867.73,297.56 1869.11,296.31 1871.47,295.48"/>
        <lane id=":-50846720#6.20_0_1" index="1" disallow="tram rail_urban rail rail_electric rail_fast ship" speed="22.22" length="8.93" shape="1864.00,299.64 1871.94,298.65"/>
        <lane id=":-50846720#6.20_0_2" index="2" disallow="tram rail_urban rail rail_electric rail_fast ship" speed="22.22" length="8.93" shape="1864.48,302.80 1872.42,301.81"/>
        <lane id=":-50846720#6.20_0_3" index="3" disallow="tram rail_urban rail rail_electric rail_fast ship" speed="22.22" length="8.93" shape="1864.48,302.80 1867.00,302.96 1868.69,303.89 1870.37,304.82 1872.90,304.98"/>
        <lane id=":-50846720#6.20_0_4" index="4" disallow="tram rail_urban rail rail_electric rail_fast ship" speed="22.22" length="8.93" shape="1864.48,302.80 1867.31,303.42 1868.93,305.47 1870.54,307.53 1873.37,308.14"/>
    </edge>
    <edge id=":-50846769.75_0" function="internal">
        <lane id=":-50846769.75_0_0" index="0" disallow="tram rail_urban rail rail_electric rail_fast ship" speed="22.22" length="8.00" shape="1290.25,385.81 1297.54,389.10"/>
        <lane id=":-50846769.75_0_1" index="1" disallow="tram rail_urban rail rail_electric rail_fast ship" speed="22.22" length="8.00" shape="1288.93,388.72 1296.22,392.02"/>
    </edge>
    <edge id=":116069075#0.376_0" function="internal">
        <lane id=":116069075#0.376_0_0" index="0" disallow="pedestrian bicycle tram rail_urban rail rail_electric rail_fast ship" speed="27.78" length="8.21" shape="548.64,502.88 556.33,500.68"/>
        <lane id=":116069075#0.376_0_1" index="1" disallow="pedestrian bicycle tram rail_urban rail rail_electric rail_fast ship" speed="27.78" length="8.21" shape="549.55,505.95 557.25,503.75"/>
        <lane id=":116069075#0.376_0_2" index="2" disallow="pedestrian bicycle tram rail_urban rail rail_electric rail_fast ship" speed="27.78" length="8.21" shape="550.47,509.01 558.16,506.82"/>
        <lane id=":116069075#0.376_0_3" index="3" disallow="pedestrian bicycle tram rail_urban rail rail_electric rail_fast ship" speed="27.78" length="8.21" shape="550.47,509.01 552.98,508.80 554.78,509.45 556.57,510.10 559.08,509.88"/>
    </edge>
    <edge id=":116069075#1.264_0" function="internal">
        <lane id=":116069075#1.264_0_0" index="0" disallow="pedestrian bicycle tram rail_urban rail rail_electric rail_fast ship" speed="27.78" length="8.21" shape="864.02,469.89 866.41,469.10 867.80,467.79 869.19,466.49 871.58,465.69"/>
        <lane id=":116069075#1.264_0_1" index="1" disallow="pedestrian bicycle tram rail_urban rail rail_electric rail_fast ship" speed="27.78" length="8.21" shape="864.02,469.89 871.95,468.87"/>
        <lane id=":116069075#1.264_0_2" index="2" disallow="pedestrian bicycle tram rail_urban rail rail_electric rail_fast ship" speed="27.78" length="8.21" shape="864.39,473.07 872.32,472.05"/>
        <lane id=":116069075#1.264_0_3" index="3" disallow="pedestrian bicycle tram rail_urban rail rail_electric rail_fast ship" speed="27.78" length="8.21" shape="864.75,476.25 872.69,475.22"/>
    </edge>
    <edge id=":116069075#1.338_0" function="internal">
        <lane id=":116069075#1.338_0_0" index="0" disallow="pedestrian bicycle tram rail_urban rail rail_electric rail_fast ship" speed="27.78" length="8.17" shape="935.75,454.70 943.55,452.92"/>
        <lane id=":116069075#1.338_0_1" index="1" disallow="pedestrian bicycle tram rail_urban rail rail_electric rail_fast ship" speed="27.78" length="8.17" shape="936.49,457.81 944.29,456.03"/>
        <lane id=":116069075#1.338_0_2" index="2" disallow="pedestrian bicycle tram rail_urban rail rail_electric rail_fast ship" speed="27.78" length="8.17" shape="937.24,460.92 945.04,459.14"/>
        <lane id=":116069075#1.338_0_3" index="3" disallow="pedestrian bicycle tram rail_urban rail rail_electric rail_fast ship" speed="27.78" length="8.17" shape="937.99,464.03 945.79,462.26"/>
        <lane id=":116069075#1.338_0_4" index="4" disallow="pedestrian bicycle tram rail_urban rail rail_electric rail_fast ship" speed="27.78" length="8.17" shape="937.99,464.03 940.51,463.96 942.26,464.70 944.02,465.44 946.54,465.37"/>
    </edge>
    <edge id=":116069186#1.112_0" function="internal">
        <lane id=":116069186#1.112_0_0" index="0" disallow="pedestrian bicycle tram rail_urban rail rail_electric rail_fast ship" speed="27.78" length="8.22" shape="1102.48,426.66 1100.41,428.10 1099.45,429.75 1098.49,431.40 1096.43,432.85"/>
        <lane id=":116069186#1.112_0_1" index="1" disallow="pedestrian bicycle tram rail_urban rail rail_electric rail_fast ship" speed="27.78" length="8.22" shape="1102.48,426.66 1095.16,429.91"/>
        <lane id=":116069186#1.112_0_2" index="2" disallow="pedestrian bicycle tram rail_urban rail rail_electric rail_fast ship" speed="27.78" length="8.22" shape="1101.22,423.72 1093.90,426.96"/>
        <lane id=":116069186#1.112_0_3" index="3" disallow="pedestrian bicycle tram rail_urban rail rail_electric rail_fast ship" speed="27.78" length="8.22" shape="1099.96,420.77 1092.64,424.02"/>
    </edge>
    <edge id=":116069186#1.128_0" function="internal">
        <lane id=":116069186#1.128_0_0" index="0" disallow="pedestrian bicycle tram rail_urban rail rail_electric rail_fast ship" speed="27.78" length="8.17" shape="1089.08,436.00 1081.68,439.06"/>
        <lane id=":116069186#1.128_0_1" index="1" disallow="pedestrian bicycle tram rail_urban rail rail_electric rail_fast ship" speed="27.78" length="8.17" shape="1087.82,433.06 1080.42,436.12"/>
        <lane id=":116069186#1.128_0_2" index="2" disallow="pedestrian bicycle tram rail_urban rail rail_electric rail_fast ship" speed="27.78" length="8.17" shape="1086.56,430.11 1079.16,433.17"/>
        <lane id=":116069186#1.128_0_3" index="3" disallow="pedestrian bicycle tram rail_urban rail rail_electric rail_fast ship" speed="27.78" length="8.17" shape="1085.30,427.17 1077.90,430.23"/>
        <lane id=":116069186#1.128_0_4" index="4" disallow="pedestrian bicycle tram rail_urban rail rail_electric rail_fast ship" speed="27.78" length="8.17" shape="1085.30,427.17 1082.83,427.67 1080.97,427.23 1079.11,426.79 1076.64,427.29"/>
    </edge>
    <edge id=":1559811806_0" function="internal">
        <lane id=":1559811806_0_0" index="0" disallow="tram rail_urban rail rail_electric rail_fast ship" speed="27.78" length="14.15" shape="2746.60,294.15 2743.45,280.34"/>
        <lane id=":1559811806_0_1" index="1" disallow="tram rail_urban rail rail_electric rail_fast ship" speed="27.78" length="14.15" shape="2749.71,293.43 2746.57,279.65"/>
    </edge>
    <edge id=":1559811806_2" function="internal">
        <lane id=":1559811806_2_0" index="0" disallow="tram rail_urban rail rail_electric rail_fast ship" speed="27.78" length="14.05" shape="2759.07,276.87 2762.18,290.52"/>
        <lane id=":1559811806_2_1" index="1" disallow="tram rail_urban rail rail_electric rail_fast ship" speed="27.78" length="14.05" shape="2755.94,277.57 2759.06,291.25"/>
        <lane id=":1559811806_2_2" index="2" disallow="tram rail_urban rail rail_electric rail_fast ship" speed="27.78" length="14.05" shape="2752.82,278.26 2755.95,291.97"/>
        <lane id=":1559811806_2_3" index="3" disallow="tram rail_urban rail rail_electric rail_fast ship" speed="27.78" length="14.05" shape="2749.70,278.95 2752.83,292.70"/>
    </edge>
    <edge id=":1559811806_6" function="internal">
        <lane id=":1559811806_6_0" index="0" disallow="tram rail_urban rail rail_electric rail_fast ship" speed="25.00" length="8.90" shape="2736.18,287.70 2738.44,286.79 2739.89,285.38 2740.51,283.46 2740.33,281.04"/>
        <lane id=":1559811806_6_1" index="1" disallow="tram rail_urban rail rail_electric rail_fast ship" speed="25.00" length="16.62" shape="2736.94,290.80 2741.85,289.06 2745.09,286.62 2746.67,283.48 2746.57,279.65"/>
    </edge>
    <edge id=":1559811808_0" function="internal">
        <lane id=":1559811808_0_0" index="0" disallow="tram rail_urban rail rail_electric rail_fast ship" speed="22.22" length="8.68" shape="2717.08,305.60 2708.41,305.18"/>
        <lane id=":1559811808_0_1" index="1" disallow="tram rail_urban rail rail_electric rail_fast ship" speed="22.22" length="8.68" shape="2717.24,302.41 2708.57,301.98"/>
    </edge>
    <edge id=":1559811808_2" function="internal">
        <lane id=":1559811808_2_0" index="0" disallow="tram rail_urban rail rail_electric rail_fast ship" speed="22.22" length="8.16" shape="2709.05,292.39 2711.47,292.50 2713.13,292.50 2714.78,292.35 2717.17,292.00"/>
        <lane id=":1559811808_2_1" index="1" disallow="tram rail_urban rail rail_electric rail_fast ship" speed="22.22" length="8.51" shape="2708.89,295.59 2711.41,295.71 2713.14,295.72 2714.86,295.57 2717.36,295.21"/>
    </edge>
    <edge id=":1559811808_4" function="internal">
        <lane id=":1559811808_4_0" index="0" disallow="tram rail_urban rail rail_electric rail_fast ship" speed="22.22" length="8.68" shape="2708.73,298.79 2717.40,299.21"/>
    </edge>
    <edge id=":1559811825_0" function="internal">
        <lane id=":1559811825_0_0" index="0" disallow="tram rail_urban rail rail_electric rail_fast ship" speed="25.00" length="25.04" shape="2848.54,348.60 2853.81,344.84 2858.29,341.90 2862.42,338.11 2866.65,331.79"/>
    </edge>
    <edge id=":1559811825_1" function="internal">
        <lane id=":1559811825_1_0" index="0" disallow="tram rail_urban rail rail_electric rail_fast ship" speed="27.78" length="25.67" shape="2854.06,354.07 2866.65,331.79"/>
        <lane id=":1559811825_1_1" index="1" disallow="tram rail_urban rail rail_electric rail_fast ship" speed="27.78" length="25.67" shape="2856.83,355.67 2869.46,333.32"/>
        <lane id=":1559811825_1_2" index="2" disallow="tram rail_urban rail rail_electric rail_fast ship" speed="27.78" length="25.67" shape="2859.60,357.27 2872.27,334.85"/>
    </edge>
    <edge id=":1559811829_0" function="internal">
        <lane id=":1559811829_0_0" index="0" disallow="tram rail_urban rail rail_electric rail_fast ship" speed="25.00" length="32.99" shape="2839.29,439.06 2833.88,443.90 2828.35,448.63 2822.73,454.48 2817.07,462.64"/>
        <lane id=":1559811829_0_1" index="1" disallow="tram rail_urban rail rail_electric rail_fast ship" speed="25.00" length="32.99" shape="2837.03,436.79 2831.55,441.73 2825.84,446.69 2820.04,452.76 2814.30,461.03"/>
    </edge>
    <edge id=":1559811829_2" function="internal">
        <lane id=":1559811829_2_0" index="0" disallow="tram rail_urban rail rail_electric rail_fast ship" speed="27.78" length="32.95" shape="2833.71,434.21 2817.07,462.64"/>
        <lane id=":1559811829_2_1" index="1" disallow="tram rail_urban rail rail_electric rail_fast ship" speed="27.78" length="32.95" shape="2830.95,432.60 2814.30,461.03"/>
        <lane id=":1559811829_2_2" index="2" disallow="tram rail_urban rail rail_electric rail_fast ship" speed="27.78" length="32.95" shape="2828.18,430.98 2811.54,459.42"/>
    </edge>
    <edge id=":1563323934_0" function="internal">
        <lane id=":1563323934_0_0" index="0" allow="pedestrian passenger delivery bicycle" speed="5.56" length="17.37" shape="3134.47,455.77 3131.97,460.46 3129.15,463.98 3126.02,466.33 3122.58,467.50"/>
    </edge>
    <edge id=":1563323934_1" function="internal">
        <lane id=":1563323934_1_0" index="0" allow="pedestrian passenger delivery bicycle" speed="5.56" length="18.79" shape="3134.47,455.77 3131.32,461.70 3128.96,463.56 3127.38,461.33 3126.60,455.04"/>
    </edge>
    <edge id=":1563323934_2" function="internal">
        <lane id=":1563323934_2_0" index="0" allow="pedestrian passenger delivery bicycle" speed="5.56" length="16.06" shape="3129.80,454.89 3129.54,459.93 3128.26,463.72 3125.94,466.24 3122.58,467.50"/>
    </edge>
    <edge id=":1563323934_3" function="internal">
        <lane id=":1563323934_3_0" index="0" allow="pedestrian passenger delivery bicycle" speed="5.56" length="4.67" shape="3129.80,454.89 3129.05,456.13 3128.27,456.56 3127.45,456.20 3126.60,455.04"/>
    </edge>
    <edge id=":1563323934_4" function="internal">
        <lane id=":1563323934_4_0" index="0" allow="pedestrian passenger delivery bicycle" speed="5.56" length="11.35" shape="3122.07,464.34 3124.20,463.46 3125.66,461.61 3126.46,458.81 3126.60,455.04"/>
    </edge>
    <edge id=":1563323934_5" function="internal">
        <lane id=":1563323934_5_0" index="0" allow="pedestrian passenger delivery bicycle" speed="5.56" length="4.67" shape="3122.07,464.34 3123.38,464.94 3123.90,465.66 3123.64,466.52 3122.58,467.50"/>
    </edge>
    <edge id=":1568545296_0" function="internal">
        <lane id=":1568545296_0_0" index="0" disallow="tram rail_urban rail rail_electric rail_fast ship" speed="18.05" length="8.94" shape="2064.84,154.13 2062.85,153.53 2061.88,152.17 2061.93,150.05 2062.99,147.17"/>
    </edge>
    <edge id=":1568545296_1" function="internal">
        <lane id=":1568545296_1_0" index="0" disallow="tram rail_urban rail rail_electric rail_fast ship" speed="13.89" length="4.67" shape="2064.84,154.13 2063.72,153.23 2063.39,152.40 2063.86,151.64 2065.13,150.95"/>
    </edge>
    <edge id=":1568545296_2" function="internal">
        <lane id=":1568545296_2_0" index="0" disallow="tram rail_urban rail rail_electric rail_fast ship" speed="22.22" length="16.91" shape="2046.31,154.22 2049.18,150.74 2052.97,149.90 2056.87,149.11 2060.11,145.78"/>
        <lane id=":1568545296_2_1" index="1" disallow="tram rail_urban rail rail_electric rail_fast ship" speed="22.22" length="16.91" shape="2049.30,155.35 2052.15,151.94 2055.91,151.16 2059.79,150.43 2062.99,147.17"/>
    </edge>
    <edge id=":1568545296_4" function="internal">
        <lane id=":1568545296_4_0" index="0" disallow="tram rail_urban rail rail_electric rail_fast ship" speed="18.05" length="17.42" shape="2049.30,155.35 2051.09,152.96 2054.33,151.43 2059.01,150.76 2065.13,150.95"/>
    </edge>
    <edge id=":1572123432_0" function="internal">
        <lane id=":1572123432_0_0" index="0" allow="pedestrian passenger delivery bicycle" speed="13.89" length="10.07" shape="2770.95,434.33 2770.22,431.81 2768.73,430.48 2766.48,430.35 2763.46,431.40"/>
    </edge>
    <edge id=":1572123432_1" function="internal">
        <lane id=":1572123432_1_0" index="0" disallow="tram rail_urban rail rail_electric rail_fast ship" speed="22.22" length="13.77" shape="2770.95,434.33 2769.13,420.68"/>
    </edge>
    <edge id=":1572123432_2" function="internal">
        <lane id=":1572123432_2_0" index="0" allow="pedestrian passenger delivery bicycle" speed="13.89" length="9.00" shape="2762.06,428.52 2764.05,427.21 2765.36,425.55 2766.00,423.53 2765.96,421.15"/>
    </edge>
    <edge id=":1572123653_0" function="internal">
        <lane id=":1572123653_0_0" index="0" disallow="tram rail_urban rail rail_electric rail_fast ship" speed="13.89" length="14.95" shape="2713.37,523.29 2698.50,521.70"/>
    </edge>
    <edge id=":1572123653_1" function="internal">
        <lane id=":1572123653_1_0" index="0" allow="pedestrian passenger delivery bicycle" speed="9.72" length="6.32" shape="2713.37,523.29 2708.82,522.15 2707.60,521.06"/>
    </edge>
    <edge id=":1572123653_2" function="internal">
        <lane id=":1572123653_2_0" index="0" disallow="tram rail_urban rail rail_electric rail_fast ship" speed="13.89" length="2.34" shape="2713.37,523.29 2712.26,522.37 2711.95,521.53"/>
    </edge>
    <edge id=":1572123653_9" function="internal">
        <lane id=":1572123653_9_0" index="0" allow="pedestrian passenger delivery bicycle" speed="9.72" length="9.70" shape="2707.60,521.06 2706.35,519.94 2705.96,516.64 2707.65,512.26"/>
    </edge>
    <edge id=":1572123653_10" function="internal">
        <lane id=":1572123653_10_0" index="0" disallow="tram rail_urban rail rail_electric rail_fast ship" speed="13.89" length="2.34" shape="2711.95,521.53 2712.43,520.78 2713.71,520.11"/>
    </edge>
    <edge id=":1572123653_3" function="internal">
        <lane id=":1572123653_3_0" index="0" allow="pedestrian passenger delivery bicycle" speed="9.72" length="9.14" shape="2710.44,513.82 2709.48,516.31 2709.70,518.19 2711.11,519.46 2713.71,520.11"/>
    </edge>
    <edge id=":1572123653_4" function="internal">
        <lane id=":1572123653_4_0" index="0" allow="pedestrian passenger delivery bicycle" speed="9.72" length="15.20" shape="2710.44,513.82 2707.90,517.55 2705.06,520.11 2701.93,521.49 2698.50,521.70"/>
    </edge>
    <edge id=":1572123653_5" function="internal">
        <lane id=":1572123653_5_0" index="0" allow="pedestrian passenger delivery bicycle" speed="5.56" length="4.67" shape="2710.44,513.82 2709.16,514.48 2708.27,514.44 2707.76,513.70 2707.65,512.26"/>
    </edge>
    <edge id=":1572123653_6" function="internal">
        <lane id=":1572123653_6_0" index="0" allow="pedestrian passenger delivery bicycle" speed="9.72" length="11.44" shape="2698.84,518.52 2701.28,518.33 2703.56,517.22 2705.68,515.20 2707.65,512.26"/>
    </edge>
    <edge id=":1572123653_7" function="internal">
        <lane id=":1572123653_7_0" index="0" disallow="tram rail_urban rail rail_electric rail_fast ship" speed="13.89" length="14.95" shape="2698.84,518.52 2713.71,520.11"/>
    </edge>
    <edge id=":1572123653_8" function="internal">
        <lane id=":1572123653_8_0" index="0" disallow="tram rail_urban rail rail_electric rail_fast ship" speed="13.89" length="2.34" shape="2698.84,518.52 2699.95,519.44 2700.26,520.28"/>
    </edge>
    <edge id=":1572123653_11" function="internal">
        <lane id=":1572123653_11_0" index="0" disallow="tram rail_urban rail rail_electric rail_fast ship" speed="13.89" length="2.34" shape="2700.26,520.28 2699.78,521.03 2698.50,521.70"/>
    </edge>
    <edge id=":1572123659_0" function="internal">
        <lane id=":1572123659_0_0" index="0" allow="pedestrian passenger delivery bicycle" speed="5.56" length="9.92" shape="2757.85,434.13 2755.27,435.48 2753.64,436.71 2752.39,438.33 2750.93,440.86"/>
    </edge>
    <edge id=":1572123659_1" function="internal">
        <lane id=":1572123659_1_0" index="0" allow="pedestrian passenger delivery bicycle" speed="5.56" length="11.76" shape="2757.85,434.13 2755.00,435.07 2752.24,435.10 2749.56,434.21 2746.95,432.40"/>
    </edge>
    <edge id=":1572123659_2" function="internal">
        <lane id=":1572123659_2_0" index="0" allow="pedestrian passenger delivery bicycle" speed="5.56" length="4.67" shape="2757.85,434.13 2756.42,433.94 2755.71,433.39 2755.72,432.50 2756.45,431.25"/>
    </edge>
    <edge id=":1572123659_3" function="internal">
        <lane id=":1572123659_3_0" index="0" allow="pedestrian passenger delivery bicycle" speed="5.56" length="7.98" shape="2749.07,430.00 2750.86,431.25 2752.68,431.88 2754.55,431.88 2756.45,431.25"/>
    </edge>
    <edge id=":1572123659_4" function="internal">
        <lane id=":1572123659_4_0" index="0" allow="pedestrian passenger delivery bicycle" speed="5.56" length="12.05" shape="2749.07,430.00 2751.17,432.44 2752.18,435.06 2752.10,437.87 2750.93,440.86"/>
    </edge>
    <edge id=":1572123659_5" function="internal">
        <lane id=":1572123659_5_0" index="0" allow="pedestrian passenger delivery bicycle" speed="5.56" length="7.67" shape="2748.14,439.31 2748.88,437.40 2748.93,435.61 2748.29,433.95 2746.95,432.40"/>
    </edge>
    <edge id=":1572123659_6" function="internal">
        <lane id=":1572123659_6_0" index="0" allow="pedestrian passenger delivery bicycle" speed="5.56" length="11.83" shape="2748.14,439.31 2749.83,436.51 2751.52,434.46 2753.59,432.82 2756.45,431.25"/>
    </edge>
    <edge id=":1572123659_7" function="internal">
        <lane id=":1572123659_7_0" index="0" allow="pedestrian passenger delivery bicycle" speed="5.56" length="4.67" shape="2748.14,439.31 2749.42,438.65 2750.31,438.69 2750.82,439.42 2750.93,440.86"/>
    </edge>
    <edge id=":1572123805_0" function="internal">
        <lane id=":1572123805_0_0" index="0" disallow="tram rail_urban rail rail_electric rail_fast ship" speed="13.89" length="14.75" shape="2733.32,525.42 2718.66,523.85"/>
    </edge>
    <edge id=":1572123805_1" function="internal">
        <lane id=":1572123805_1_0" index="0" disallow="tram rail_urban rail rail_electric rail_fast ship" speed="13.89" length="2.34" shape="2733.32,525.42 2732.21,524.50 2731.90,523.66"/>
    </edge>
    <edge id=":1572123805_6" function="internal">
        <lane id=":1572123805_6_0" index="0" disallow="tram rail_urban rail rail_electric rail_fast ship" speed="13.89" length="2.34" shape="2731.90,523.66 2732.38,522.91 2733.66,522.24"/>
    </edge>
    <edge id=":1572123805_2" function="internal">
        <lane id=":1572123805_2_0" index="0" disallow="tram rail_urban rail rail_electric rail_fast ship" speed="13.89" length="14.75" shape="2719.00,520.67 2733.66,522.24"/>
    </edge>
    <edge id=":1572123805_3" function="internal">
        <lane id=":1572123805_3_0" index="0" allow="pedestrian passenger delivery bicycle" speed="9.72" length="6.19" shape="2719.00,520.67 2723.36,521.77 2724.63,522.88"/>
    </edge>
    <edge id=":1572123805_7" function="internal">
        <lane id=":1572123805_7_0" index="0" allow="pedestrian passenger delivery bicycle" speed="9.72" length="9.41" shape="2724.63,522.88 2725.84,523.95 2726.44,527.19 2725.16,531.50"/>
    </edge>
    <edge id=":1572123805_4" function="internal">
        <lane id=":1572123805_4_0" index="0" allow="pedestrian passenger delivery bicycle" speed="9.72" length="9.10" shape="2722.25,530.17 2723.00,527.66 2722.65,525.76 2721.20,524.50 2718.66,523.85"/>
    </edge>
    <edge id=":1572123805_5" function="internal">
        <lane id=":1572123805_5_0" index="0" allow="pedestrian passenger delivery bicycle" speed="9.72" length="14.92" shape="2722.25,530.17 2724.46,526.40 2727.10,523.83 2730.17,522.44 2733.66,522.24"/>
    </edge>
    <edge id=":1572144651_0" function="internal">
        <lane id=":1572144651_0_0" index="0" allow="pedestrian passenger delivery bicycle custom1 custom2" speed="5.56" length="14.24" shape="1229.74,429.78 1226.60,431.57 1223.80,433.64 1221.16,435.94 1218.47,438.40"/>
    </edge>
    <edge id=":1572144651_1" function="internal">
        <lane id=":1572144651_1_0" index="0" allow="pedestrian passenger delivery bicycle custom1 custom2" speed="5.56" length="4.67" shape="1229.74,429.78 1228.31,429.58 1227.60,429.03 1227.61,428.14 1228.35,426.90"/>
    </edge>
    <edge id=":1572144651_2" function="internal">
        <lane id=":1572144651_2_0" index="0" allow="pedestrian passenger delivery bicycle custom1 custom2" speed="5.56" length="15.46" shape="1213.07,428.59 1217.95,427.77 1221.80,427.79 1225.10,427.79 1228.35,426.90"/>
    </edge>
    <edge id=":1572144651_3" function="internal">
        <lane id=":1572144651_3_0" index="0" allow="pedestrian passenger delivery bicycle custom1 custom2" speed="5.56" length="19.16" shape="1213.92,431.68 1220.63,430.33 1223.62,431.00 1222.90,433.69 1218.47,438.40"/>
    </edge>
    <edge id=":1572144651_4" function="internal">
        <lane id=":1572144651_4_0" index="0" allow="pedestrian passenger delivery bicycle custom1 custom2" speed="5.56" length="15.15" shape="1216.32,436.03 1219.13,433.49 1222.03,431.02 1225.09,428.77 1228.35,426.90"/>
    </edge>
    <edge id=":1572144651_5" function="internal">
        <lane id=":1572144651_5_0" index="0" allow="pedestrian passenger delivery bicycle custom1 custom2" speed="5.56" length="4.67" shape="1216.32,436.03 1217.75,435.82 1218.58,436.14 1218.82,437.00 1218.47,438.40"/>
    </edge>
    <edge id=":1572144677_0" function="internal">
        <lane id=":1572144677_0_0" index="0" allow="pedestrian passenger delivery bicycle custom1 custom2" speed="5.56" length="5.68" shape="1186.18,467.78 1184.88,468.34 1183.74,467.87 1182.50,467.22 1180.87,467.20"/>
    </edge>
    <edge id=":1572144677_1" function="internal">
        <lane id=":1572144677_1_0" index="0" allow="pedestrian passenger delivery bicycle custom1 custom2" speed="5.56" length="4.67" shape="1186.18,467.78 1184.76,467.99 1183.92,467.67 1183.68,466.81 1184.03,465.41"/>
    </edge>
    <edge id=":1572144743_0" function="internal">
        <lane id=":1572144743_0_0" index="0" allow="pedestrian passenger delivery bicycle custom1 custom2" speed="13.89" length="14.48" shape="1287.24,401.72 1283.78,402.72 1280.66,404.41 1277.62,406.38 1274.41,408.22"/>
    </edge>
    <edge id=":1572144743_1" function="internal">
        <lane id=":1572144743_1_0" index="0" disallow="tram rail_urban rail rail_electric rail_fast ship" speed="22.22" length="15.04" shape="1287.24,401.72 1283.52,401.85 1279.80,401.39 1276.11,400.56 1272.45,399.61"/>
    </edge>
    <edge id=":1572144743_2" function="internal">
        <lane id=":1572144743_2_0" index="0" allow="pedestrian passenger delivery bicycle custom1 custom2" speed="13.89" length="10.05" shape="1273.02,405.34 1275.81,403.61 1276.65,402.08 1275.53,400.75 1272.45,399.61"/>
    </edge>
    <edge id=":1572144743_3" function="internal">
        <lane id=":1572144743_3_0" index="0" allow="pedestrian passenger delivery bicycle custom1 custom2" speed="5.56" length="4.67" shape="1273.02,405.34 1274.45,405.54 1275.15,406.08 1275.14,406.98 1274.41,408.22"/>
    </edge>
    <edge id=":1572144752_0" function="internal">
        <lane id=":1572144752_0_0" index="0" allow="pedestrian passenger delivery bicycle custom1 custom2" speed="5.56" length="10.05" shape="1134.77,481.20 1131.94,482.11 1130.06,482.91 1128.29,483.93 1125.76,485.52"/>
    </edge>
    <edge id=":1572144752_1" function="internal">
        <lane id=":1572144752_1_0" index="0" allow="pedestrian passenger delivery bicycle custom1 custom2" speed="5.56" length="14.25" shape="1134.77,481.20 1129.28,482.56 1126.66,482.45 1126.91,480.86 1130.02,477.79"/>
    </edge>
    <edge id=":1572144752_2" function="internal">
        <lane id=":1572144752_2_0" index="0" allow="pedestrian passenger delivery bicycle custom1 custom2" speed="5.56" length="8.70" shape="1124.07,482.80 1125.73,481.08 1126.15,479.25 1126.50,477.33 1127.96,475.34"/>
    </edge>
    <edge id=":1572144752_3" function="internal">
        <lane id=":1572144752_3_0" index="0" allow="pedestrian passenger delivery bicycle custom1 custom2" speed="5.56" length="4.67" shape="1124.07,482.80 1125.51,482.85 1126.27,483.32 1126.36,484.21 1125.76,485.52"/>
    </edge>
    <edge id=":1688843682_0" function="internal">
        <lane id=":1688843682_0_0" index="0" disallow="pedestrian bicycle tram rail_urban rail rail_electric rail_fast ship" speed="27.78" length="0.10" shape="3138.32,306.78 3138.24,306.76"/>
        <lane id=":1688843682_0_1" index="1" disallow="pedestrian bicycle tram rail_urban rail rail_electric rail_fast ship" speed="27.78" length="0.10" shape="3137.36,309.84 3137.44,309.86"/>
    </edge>
    <edge id=":2402962022_0" function="internal">
        <lane id=":2402962022_0_0" index="0" allow="pedestrian passenger delivery bicycle" speed="13.89" length="9.04" shape="2390.55,288.92 2388.09,289.15 2386.28,290.11 2385.14,291.80 2384.66,294.24"/>
    </edge>
    <edge id=":2402962022_1" function="internal">
        <lane id=":2402962022_1_0" index="0" disallow="tram rail_urban rail rail_electric rail_fast ship" speed="22.22" length="14.40" shape="2390.55,288.92 2376.17,288.18"/>
        <lane id=":2402962022_1_1" index="1" disallow="tram rail_urban rail rail_electric rail_fast ship" speed="22.22" length="14.40" shape="2390.72,285.73 2376.33,284.99"/>
    </edge>
    <edge id=":2402962022_3" function="internal">